Circuit: * C:\users\ostoja\Desktop\02_Elektronika\diff_sonde\DS20M05V\simulacije\charge_pump\complete_linear_regulator.asc

Limiting rise time of source v1 to 2e-006
Limiting fall time of source v1 to 2e-006
Limiting rise time of source v5 to 2e-006
Limiting fall time of source v5 to 2e-006
Direct Newton iteration for .op point succeeded.
.step vbat=3.4
.step vbat=3.6
.step vbat=3.8
.step vbat=4
.step vbat=4.2
.step vbat=4.5
.step vbat=5.6
.step vbat=7
.step vbat=8

Date: Thu Dec 25 01:21:01 2025
Total elapsed time: 6.182 seconds.

tnom = 27
temp = 27
method = trap
totiter = 19545
traniter = 19534
tranpoints = 9768
accept = 7767
rejected = 2001
matrix size = 155
fillins = 81
solver = Normal
Thread vector: 5.5/4.8[2] 2.4/3.1[1] 0.7/2.1[1] 0.3/1.7[1]  2592/500
Matrix Compiler1: 18.44 KB object code size  2.3/0.9/[0.8]
Matrix Compiler2: 15.57 KB object code size  0.8/0.9/[0.7]

