Circuit: * C:\users\ostoja\Desktop\Elektronika\diff_sonde\DS100M08KV2\simulacije\charge_pump\complete_linear_regulator.asc

Limiting rise time of source v1 to 2e-006
Limiting fall time of source v1 to 2e-006
Limiting rise time of source v5 to 2e-006
Limiting fall time of source v5 to 2e-006
Direct Newton iteration for .op point succeeded.
.step vbat=3.2
.step vbat=3.5
.step vbat=3.6
.step vbat=3.9
.step vbat=4.2

Date: Sun Nov 30 23:16:38 2025
Total elapsed time: 0.477 seconds.

tnom = 27
temp = 27
method = trap
totiter = 1
traniter = 0
tranpoints = 1
accept = 1
rejected = 0
matrix size = 22
fillins = 0
solver = Normal

