Circuit: * C:\users\ostoja\Desktop\Elektronika\diff_sonde\DS100M08KV2\simulacije\charge_pump\Draft1.asc

u1:c12: both pins shorted together -- ignoring.
Direct Newton iteration failed to find .op point.  (Use ".option noopiter" to skip.)
Starting Gmin stepping
Gmin = 10
vernier = 0.5
vernier = 0.25
Gmin = 3.42672
vernier = 0.125
vernier = 0.0625
vernier = 0.03125
vernier = 0.015625
vernier = 0.0078125
Gmin = 3.58488
vernier = 0.00390625
vernier = 0.00195313
vernier = 0.000976563
vernier = 0.000488281
Gmin = 3.58094
Gmin = 0
Gmin stepping failed

Starting source stepping with srcstepmethod=0
Source Step = 3.0303%
Source Step = 33.3333%
Source Step = 63.6364%
Source Step = 93.9394%
Source stepping succeeded in finding the operating point.


Date: Fri Nov 07 13:30:41 2025
Total elapsed time: 0.114 seconds.

tnom = 27
temp = 27
method = trap
totiter = 9357
traniter = 7632
tranpoints = 3817
accept = 2419
rejected = 1398
matrix size = 81
fillins = 185
solver = Normal
Matrix Compiler1:     567 opcodes  1.3/0.5/[0.5]
Matrix Compiler2: off
