Circuit: * C:\users\ostoja\Desktop\02_Elektronika\diff_sonde\DS20M05V\simulacije\charge_pump\improved_gate_driver_v5.asc

WARNING: Less than two connections to node LOSSES.  This node is used by B3.
WARNING: Less than two connections to node EFFICIENCY.  This node is used by B4.
WARNING: Less than two connections to node U1:U1:UA:TEST.  This node is used by E:U1:U1:UA:TEST.
WARNING: Less than two connections to node U1:U1:UA:VTH_DIFF.  This node is used by E:U1:U1:UA:VTHDIFF.
WARNING: Less than two connections to node U1:U1:UB:TEST.  This node is used by E:U1:U1:UB:TEST.
WARNING: Less than two connections to node U1:U1:UB:VTH_DIFF.  This node is used by E:U1:U1:UB:VTHDIFF.
WARNING: Less than two connections to node U2:U1:UA:TEST.  This node is used by E:U2:U1:UA:TEST.
WARNING: Less than two connections to node U2:U1:UA:VTH_DIFF.  This node is used by E:U2:U1:UA:VTHDIFF.
WARNING: Less than two connections to node U2:U1:UB:TEST.  This node is used by E:U2:U1:UB:TEST.
WARNING: Less than two connections to node U2:U1:UB:VTH_DIFF.  This node is used by E:U2:U1:UB:VTHDIFF.
WARNING: Less than two connections to node U3:U1:UA:TEST.  This node is used by E:U3:U1:UA:TEST.
WARNING: Less than two connections to node U3:U1:UA:VTH_DIFF.  This node is used by E:U3:U1:UA:VTHDIFF.
WARNING: Less than two connections to node U3:U1:UB:TEST.  This node is used by E:U3:U1:UB:TEST.
WARNING: Less than two connections to node U3:U1:UB:VTH_DIFF.  This node is used by E:U3:U1:UB:VTHDIFF.
WARNING: Less than two connections to node U4:U1:UA:TEST.  This node is used by E:U4:U1:UA:TEST.
WARNING: Less than two connections to node U4:U1:UA:VTH_DIFF.  This node is used by E:U4:U1:UA:VTHDIFF.
WARNING: Less than two connections to node U4:U1:UB:TEST.  This node is used by E:U4:U1:UB:TEST.
WARNING: Less than two connections to node U4:U1:UB:VTH_DIFF.  This node is used by E:U4:U1:UB:VTHDIFF.
WARNING: Less than two connections to node U5:U1:UA:TEST.  This node is used by E:U5:U1:UA:TEST.
WARNING: Less than two connections to node U5:U1:UA:VTH_DIFF.  This node is used by E:U5:U1:UA:VTHDIFF.
WARNING: Less than two connections to node U5:U1:UB:TEST.  This node is used by E:U5:U1:UB:TEST.
WARNING: Less than two connections to node U5:U1:UB:VTH_DIFF.  This node is used by E:U5:U1:UB:VTHDIFF.
WARNING: Less than two connections to node U6:U1:UA:TEST.  This node is used by E:U6:U1:UA:TEST.
WARNING: Less than two connections to node U6:U1:UA:VTH_DIFF.  This node is used by E:U6:U1:UA:VTHDIFF.
WARNING: Less than two connections to node U6:U1:UB:TEST.  This node is used by E:U6:U1:UB:TEST.
WARNING: Less than two connections to node U6:U1:UB:VTH_DIFF.  This node is used by E:U6:U1:UB:VTHDIFF.
WARNING: Less than two connections to node N006.  This node is used by D5.
Per .tran options, skipping operating point for transient analysis.
Changing Tseed to 4.88281e-010
Changing Tseed to 4.88281e-012
Changing Tseed to 4.88281e-009
Changing Tseed to 4.88281e-013
Heightened Def Con from 0.000199925 to 0.000199925

Date: Thu Feb 26 10:33:49 2026
Total elapsed time: 5.536 seconds.

tnom = 27
temp = 27
method = trap
totiter = 20456
traniter = 20456
tranpoints = 5157
accept = 3798
rejected = 1356
matrix size = 766
fillins = 305
solver = Normal
Thread vector: 88.0/34.2[16] 2.3/10.7[1] 29.7/76.5[1] 0.9/33.0[1]  2592/500
Matrix Compiler1:    2160 opcodes  9.3/3.5/[2.8]
Matrix Compiler2: off
