Circuit: * C:\users\ostoja\Desktop\Elektronika\diff_sonde\DS100M08KV2\simulacije\charge_pump\logicoscilator.asc

WARNING: Less than two connections to node U2:U1:UA:TEST.  This node is used by E:U2:U1:UA:TEST.
WARNING: Less than two connections to node U2:U1:UA:VTH_DIFF.  This node is used by E:U2:U1:UA:VTHDIFF.
WARNING: Less than two connections to node U2:U1:UB:TEST.  This node is used by E:U2:U1:UB:TEST.
WARNING: Less than two connections to node U2:U1:UB:VTH_DIFF.  This node is used by E:U2:U1:UB:VTHDIFF.
Per .tran options, skipping operating point for transient analysis.
Changing Tseed to 5e-014
Changing Tseed to 5e-016
Changing Tseed to 5e-013

Date: Wed Dec 10 23:45:06 2025
Total elapsed time: 2.889 seconds.

tnom = 27
temp = 27
method = trap
totiter = 200269
traniter = 200269
tranpoints = 100034
accept = 100025
rejected = 6
matrix size = 129
fillins = 22
solver = Normal
Thread vector: 6.8/4.3[7] 0.3/1.6[1] 2.7/3.6[1] 0.1/1.5[1]  2592/500
Matrix Compiler1: 4.10 KB object code size  0.7/0.3/[0.3]
Matrix Compiler2: 7.72 KB object code size  0.4/0.6/[0.3]

