Circuit: * C:\users\ostoja\Desktop\Elektronika\diff_sonde\DS20M05V\simulacije\charge_pump\vbe_multiplier.asc

Instance "m:u2:2": Length shorter than recommended for a level 3 MOSFET.
Instance "m:u1:2": Length shorter than recommended for a level 3 MOSFET.
Direct Newton iteration for .op point succeeded.
.step vbat=3.5
.step vbat=3.9
.step vbat=4.2

Date: Wed Dec 17 10:52:54 2025
Total elapsed time: 3.013 seconds.

tnom = 27
temp = 27
method = trap
totiter = 163332
traniter = 163297
tranpoints = 65275
accept = 52189
rejected = 13086
matrix size = 84
fillins = 23
solver = Normal
Matrix Compiler1: 7.98 KB object code size  0.9/0.4/[0.4]
Matrix Compiler2: 7.46 KB object code size  0.4/0.5/[0.4]

