Circuit: * C:\users\ostoja\Desktop\02_Elektronika\diff_sonde\DS20M05V\simulacije\two_opamp\ratio_analysis_ac.asc

WARNING: Node N002 is floating.
WARNING: Node N003 is floating.
WARNING: Node N004 is floating.
WARNING: Node N046 is floating.
WARNING: Node N047 is floating.
WARNING: Node N048 is floating.
WARNING: Node N009 is floating.
WARNING: Node N010 is floating.
WARNING: Node N011 is floating.
WARNING: Node N051 is floating.
WARNING: Node N052 is floating.
WARNING: Node N053 is floating.

WARNING: Less than two connections to node 9V.  This node is used by V4.
WARNING: Less than two connections to node -9V.  This node is used by V6.
WARNING: Less than two connections to node 5V.  This node is used by V7.
WARNING: Less than two connections to node -5V.  This node is used by V8.
WARNING: Less than two connections to node N021.  This node is used by L1.
WARNING: Less than two connections to node N023.  This node is used by L3.
Direct Newton iteration for .op point succeeded.

Date: Tue Dec 23 15:10:00 2025
Total elapsed time: 0.063 seconds.

tnom = 27
temp = 27
method = trap
totiter = 5
traniter = 0
tranpoints = 0
accept = 0
rejected = 0
matrix size = 303
fillins = 351
solver = Normal
Matrix Compiler1:    1906 opcodes
Matrix Compiler2: 30.26 KB object code size
