Circuit: * C:\users\ostoja\Desktop\02_Elektronika\diff_sonde\DS20M05V\simulacije\two_opamp\ratio_analysis.asc

WARNING: Node N002 is floating.
WARNING: Node N003 is floating.
WARNING: Node N004 is floating.
WARNING: Node N057 is floating.
WARNING: Node N058 is floating.
WARNING: Node N059 is floating.
WARNING: Node N009 is floating.
WARNING: Node N010 is floating.
WARNING: Node N011 is floating.
WARNING: Node N062 is floating.
WARNING: Node N063 is floating.
WARNING: Node N064 is floating.

WARNING: Less than two connections to node 9V.  This node is used by V4.
WARNING: Less than two connections to node -9V.  This node is used by V6.
WARNING: Less than two connections to node 5V.  This node is used by V7.
WARNING: Less than two connections to node -5V.  This node is used by V8.
WARNING: Less than two connections to node N028.  This node is used by V9.
Direct Newton iteration for .op point succeeded.

Date: Sun May 24 17:58:48 2026
Total elapsed time: 0.389 seconds.

tnom = 27
temp = 27
method = trap
totiter = 2128
traniter = 2123
tranpoints = 1050
accept = 1048
rejected = 2
matrix size = 548
fillins = 725
solver = Normal

