Circuit: * C:\users\ostoja\Desktop\02_Elektronika\diff_sonde\DS20M05V\simulacije\lin.asc

Limiting rise time of source v2 to 2e-006
Limiting fall time of source v2 to 2e-006
Direct Newton iteration for .op point succeeded.
.step vbat=3.9
.step vbat=4.2
.step vbat=5
.step vbat=6
.step vbat=7

Date: Wed Dec 24 23:51:01 2025
Total elapsed time: 0.593 seconds.

tnom = 27
temp = 27
method = trap
totiter = 3882
traniter = 3867
tranpoints = 1856
accept = 1678
rejected = 178
matrix size = 26
fillins = 20
solver = Normal
Matrix Compiler1:     157 opcodes  0.4/[0.2]/0.3
Matrix Compiler2:     197 opcodes  0.2/[0.2]/0.3

