Circuit: * C:\users\ostoja\Desktop\Elektronika\diff_sonde\DS20M05V\simulacije\charger\discrete_charger.asc

Direct Newton iteration for .op point succeeded.

Date: Tue Dec 16 10:23:57 2025
Total elapsed time: 0.150 seconds.

tnom = 27
temp = 27
method = trap
totiter = 2266
traniter = 2253
tranpoints = 1109
accept = 1085
rejected = 24
matrix size = 31
fillins = 40
solver = Normal
Matrix Compiler1:     259 opcodes  0.6/[0.3]/0.3
Matrix Compiler2: off  [0.2]/0.3/0.3

