Circuit: * C:\users\ostoja\Desktop\Elektronika\diff_sonde\DS20M05V\simulacije\charger\discrete_charger_TL431.asc

WARNING: Less than two connections to node N019.  This node is used by R18.
Direct Newton iteration for .op point succeeded.

Date: Wed Dec 17 01:24:57 2025
Total elapsed time: 0.417 seconds.

tnom = 27
temp = 27
method = trap
totiter = 21026
traniter = 20978
tranpoints = 7704
accept = 5764
rejected = 1940
matrix size = 116
fillins = 118
solver = Normal
Matrix Compiler1: 16.05 KB object code size  1.8/0.7/[0.7]
Matrix Compiler2: 12.43 KB object code size  0.6/0.9/[0.5]

